matlab/Koosha-Interdependency-master/simulations/data/ieee118.m
% File generated by PSAT from IEEE/CDF data file.
% ------------------------------------------------------------------------------
% Author:   Federico Milano
% E-mail:   fmilano@thunderbox.uwaterloo.ca
% Web-site: http://thunderbox.uwaterloo.ca/~fmilano
% ------------------------------------------------------------------------------
%  08/25/93 UW ARCHIVE           100.0  1961 W IEEE 118 Bus Test Case

Bus.con = [ ...
   1    1.00  0.95500  0.18623  1  1;
   2    1.00  0.97100  0.19583  1  1;
   3    1.00  0.96800  0.20176  1  1;
   4    1.00  0.99800  0.26669  1  1;
   5    1.00  1.00200  0.27454  1  1;
   6    1.00  0.99000  0.22689  1  1;
   7    1.00  0.98900  0.21921  1  1;
   8    1.00  1.01500  0.36250  1  1;
   9    1.00  1.04300  0.48904  1  1;
  10    1.00  1.05000  0.62151  1  1;
  11    1.00  0.98500  0.22201  1  1;
  12    1.00  0.99000  0.21293  1  1;
  13    1.00  0.96800  0.19809  1  1;
  14    1.00  0.98400  0.20071  1  1;
  15    1.00  0.97000  0.19600  1  1;
  16    1.00  0.98400  0.20787  1  1;
  17    1.00  0.99500  0.23981  1  1;
  18    1.00  0.97300  0.20124  1  1;
  19    1.00  0.96200  0.19286  1  1;
  20    1.00  0.95800  0.20822  1  1;
  21    1.00  0.95900  0.23597  1  1;
  22    1.00  0.97000  0.28065  1  1;
  23    1.00  1.00000  0.36652  1  1;
  24    1.00  0.99200  0.36460  1  1;
  25    1.00  1.05000  0.48747  1  1;
  26    1.00  1.01500  0.51854  1  1;
  27    1.00  0.96800  0.26791  1  1;
  28    1.00  0.96200  0.23771  1  1;
  29    1.00  0.96300  0.22044  1  1;
  30    1.00  0.96800  0.32795  1  1;
  31    1.00  0.96700  0.22253  1  1;
  32    1.00  0.96300  0.25831  1  1;
  33    1.00  0.97200  0.18553  1  1;
  34    1.00  0.98400  0.19722  1  1;
  35    1.00  0.98100  0.18972  1  1;
  36    1.00  0.98000  0.18972  1  1;
  37    1.00  0.99200  0.20543  1  1;
  38    1.00  0.96200  0.29514  1  1;
  39    1.00  0.97000  0.14678  1  1;
  40    1.00  0.97000  0.12828  1  1;
  41    1.00  0.96700  0.12078  1  1;
  42    1.00  0.98500  0.14888  1  1;
  43    1.00  0.97800  0.19687  1  1;
  44    1.00  0.98500  0.24120  1  1;
  45    1.00  0.98700  0.27349  1  1;
  46    1.00  1.00500  0.32271  1  1;
  47    1.00  1.01700  0.36181  1  1;
  48    1.00  1.02100  0.34784  1  1;
  49    1.00  1.02500  0.36547  1  1;
  50    1.00  1.00100  0.32987  1  1;
  51    1.00  0.96700  0.28414  1  1;
  52    1.00  0.95700  0.26738  1  1;
  53    1.00  0.94600  0.25045  1  1;
  54    1.00  0.95500  0.26634  1  1;
  55    1.00  0.95200  0.26128  1  1;
  56    1.00  0.95400  0.26459  1  1;
  57    1.00  0.97100  0.28554  1  1;
  58    1.00  0.95900  0.27070  1  1;
  59    1.00  0.98500  0.33807  1  1;
  60    1.00  0.99300  0.40404  1  1;
  61    1.00  0.99500  0.41958  1  1;
  62    1.00  0.99800  0.40893  1  1;
  63    1.00  0.96900  0.39706  1  1;
  64    1.00  0.98400  0.42795  1  1;
  65    1.00  1.00500  0.48258  1  1;
  66    1.00  1.05000  0.47962  1  1;
  67    1.00  1.02000  0.43354  1  1;
  68    1.00  1.00300  0.48084  1  1;
  69    1.00  1.03500  0.52360  1  1;
  70    1.00  0.98400  0.39410  1  1;
  71    1.00  0.98700  0.38659  1  1;
  72    1.00  0.98000  0.36617  1  1;
  73    1.00  0.99100  0.38293  1  1;
  74    1.00  0.95800  0.37769  1  1;
  75    1.00  0.96700  0.39985  1  1;
  76    1.00  0.94300  0.37996  1  1;
  77    1.00  1.00600  0.46635  1  1;
  78    1.00  1.00300  0.46112  1  1;
  79    1.00  1.00900  0.46635  1  1;
  80    1.00  1.04000  0.50545  1  1;
  81    1.00  0.99700  0.49044  1  1;
  82    1.00  0.98900  0.47543  1  1;
  83    1.00  0.98500  0.49602  1  1;
  84    1.00  0.98000  0.54018  1  1;
  85    1.00  0.98500  0.56741  1  1;
  86    1.00  0.98700  0.54350  1  1;
  87    1.00  1.01500  0.54803  1  1;
  88    1.00  0.98700  0.62204  1  1;
  89    1.00  1.00500  0.69272  1  1;
  90    1.00  0.98500  0.58102  1  1;
  91    1.00  0.98000  0.58137  1  1;
  92    1.00  0.99000  0.58992  1  1;
  93    1.00  0.98700  0.53739  1  1;
  94    1.00  0.99100  0.49986  1  1;
  95    1.00  0.98100  0.48293  1  1;
  96    1.00  0.99300  0.48014  1  1;
  97    1.00  1.01100  0.48660  1  1;
  98    1.00  1.02400  0.47822  1  1;
  99    1.00  1.01000  0.47194  1  1;
 100    1.00  1.01700  0.48922  1  1;
 101    1.00  0.99300  0.51679  1  1;
 102    1.00  0.99100  0.56374  1  1;
 103    1.00  1.01000  0.42656  1  1;
 104    1.00  0.97100  0.37856  1  1;
 105    1.00  0.96500  0.35901  1  1;
 106    1.00  0.96200  0.35465  1  1;
 107    1.00  0.95200  0.30596  1  1;
 108    1.00  0.96700  0.33824  1  1;
 109    1.00  0.96700  0.33039  1  1;
 110    1.00  0.97300  0.31573  1  1;
 111    1.00  0.98000  0.34453  1  1;
 112    1.00  0.97500  0.26162  1  1;
 113    1.00  0.99300  0.23981  1  1;
 114    1.00  0.96000  0.25237  1  1;
 115    1.00  0.96000  0.25237  1  1;
 116    1.00  1.00500  0.47333  1  1;
 117    1.00  0.97400  0.18623  1  1;
 118    1.00  0.94900  0.38258  1  1;
  ];

SW.con = [ ...
  69 100.0   1.00  1.03500  0.52360  3.00000 -3.00000 1.1 0.9  5.16400 1 1 1;
  ];

PV.con = [ ...
   1 100.0   1.00  0.00000  0.95500  0.15000 -0.05000 1.1 0.9 1  1;
   4 100.0   1.00 -0.09000  0.99800  3.00000 -3.00000 1.1 0.9 1  1;
   6 100.0   1.00  0.00000  0.99000  0.50000 -0.13000 1.1 0.9 1  1;
   8 100.0   1.00 -0.28000  1.01500  3.00000 -3.00000 1.1 0.9 1  1;
  10 100.0   1.00  4.50000  1.05000  2.00000 -1.47000 1.1 0.9 1  1;
  12 100.0   1.00  0.85000  0.99000  1.20000 -0.35000 1.1 0.9 1  1;
  15 100.0   1.00  0.00000  0.97000  0.30000 -0.10000 1.1 0.9 1  1;
  18 100.0   1.00  0.00000  0.97300  0.50000 -0.16000 1.1 0.9 1  1;
  19 100.0   1.00  0.00000  0.96200  0.24000 -0.08000 1.1 0.9 1  1;
  24 100.0   1.00 -0.13000  0.99200  3.00000 -3.00000 1.1 0.9 1  1;
  25 100.0   1.00  2.20000  1.05000  1.40000 -0.47000 1.1 0.9 1  1;
  26 100.0   1.00  3.14000  1.01500 10.00000 -10.00000 1.1 0.9 1  1;
  27 100.0   1.00 -0.09000  0.96800  3.00000 -3.00000 1.1 0.9 1  1;
  31 100.0   1.00  0.07000  0.96700  3.00000 -3.00000 1.1 0.9 1  1;
  32 100.0   1.00  0.00000  0.96300  0.42000 -0.14000 1.1 0.9 1  1;
  34 100.0   1.00  0.00000  0.98400  0.24000 -0.08000 1.1 0.9 1  1;
  36 100.0   1.00  0.00000  0.98000  0.24000 -0.08000 1.1 0.9 1  1;
  40 100.0   1.00 -0.46000  0.97000  3.00000 -3.00000 1.1 0.9 1  1;
  42 100.0   1.00 -0.59000  0.98500  3.00000 -3.00000 1.1 0.9 1  1;
  46 100.0   1.00  0.19000  1.00500  1.00000 -1.00000 1.1 0.9 1  1;
  49 100.0   1.00  2.04000  1.02500  2.10000 -0.85000 1.1 0.9 1  1;
  54 100.0   1.00  0.48000  0.95500  3.00000 -3.00000 1.1 0.9 1  1;
  55 100.0   1.00  0.00000  0.95200  0.23000 -0.08000 1.1 0.9 1  1;
  56 100.0   1.00  0.00000  0.95400  0.15000 -0.08000 1.1 0.9 1  1;
  59 100.0   1.00  1.55000  0.98500  1.80000 -0.60000 1.1 0.9 1  1;
  61 100.0   1.00  1.60000  0.99500  3.00000 -1.00000 1.1 0.9 1  1;
  62 100.0   1.00  0.00000  0.99800  0.20000 -0.20000 1.1 0.9 1  1;
  65 100.0   1.00  3.91000  1.00500  2.00000 -0.67000 1.1 0.9 1  1;
  66 100.0   1.00  3.92000  1.05000  2.00000 -0.67000 1.1 0.9 1  1;
  70 100.0   1.00  0.00000  0.98400  0.32000 -0.10000 1.1 0.9 1  1;
  72 100.0   1.00 -0.12000  0.98000  1.00000 -1.00000 1.1 0.9 1  1;
  73 100.0   1.00 -0.06000  0.99100  1.00000 -1.00000 1.1 0.9 1  1;
  74 100.0   1.00  0.00000  0.95800  0.09000 -0.06000 1.1 0.9 1  1;
  76 100.0   1.00  0.00000  0.94300  0.23000 -0.08000 1.1 0.9 1  1;
  77 100.0   1.00  0.00000  1.00600  0.70000 -0.20000 1.1 0.9 1  1;
  80 100.0   1.00  4.77000  1.04000  2.80000 -1.65000 1.1 0.9 1  1;
  85 100.0   1.00  0.00000  0.98500  0.23000 -0.08000 1.1 0.9 1  1;
  87 100.0   1.00  0.04000  1.01500 10.00000 -1.00000 1.1 0.9 1  1;
  89 100.0   1.00  6.07000  1.00500  3.00000 -2.10000 1.1 0.9 1  1;
  90 100.0   1.00 -0.85000  0.98500  3.00000 -3.00000 1.1 0.9 1  1;
  91 100.0   1.00 -0.10000  0.98000  1.00000 -1.00000 1.1 0.9 1  1;
  92 100.0   1.00  0.00000  0.99000  0.09000 -0.03000 1.1 0.9 1  1;
  99 100.0   1.00 -0.42000  1.01000  1.00000 -1.00000 1.1 0.9 1  1;
 100 100.0   1.00  2.52000  1.01700  1.55000 -0.50000 1.1 0.9 1  1;
 103 100.0   1.00  0.40000  1.01000  0.40000 -0.15000 1.1 0.9 1  1;
 104 100.0   1.00  0.00000  0.97100  0.23000 -0.08000 1.1 0.9 1  1;
 105 100.0   1.00  0.00000  0.96500  0.23000 -0.08000 1.1 0.9 1  1;
 107 100.0   1.00 -0.22000  0.95200  2.00000 -2.00000 1.1 0.9 1  1;
 110 100.0   1.00  0.00000  0.97300  0.23000 -0.08000 1.1 0.9 1  1;
 111 100.0   1.00  0.36000  0.98000 10.00000 -1.00000 1.1 0.9 1  1;
 112 100.0   1.00 -0.43000  0.97500 10.00000 -1.00000 1.1 0.9 1  1;
 113 100.0   1.00 -0.06000  0.99300  2.00000 -1.00000 1.1 0.9 1  1;
 116 100.0   1.00 -1.84000  1.00500 10.00000 -10.00000 1.1 0.9 1  1;
  ];

PQ.con = [ ...
   1 100.0   1.00  0.51000  0.27000 1.1 0.9 1  1;
   2 100.0   1.00  0.20000  0.09000 1.1 0.9 1  1;
   3 100.0   1.00  0.39000  0.10000 1.1 0.9 1  1;
   4 100.0   1.00  0.30000  0.12000 1.1 0.9 1  1;
   6 100.0   1.00  0.52000  0.22000 1.1 0.9 1  1;
   7 100.0   1.00  0.19000  0.02000 1.1 0.9 1  1;
  11 100.0   1.00  0.70000  0.23000 1.1 0.9 1  1;
  12 100.0   1.00  0.47000  0.10000 1.1 0.9 1  1;
  13 100.0   1.00  0.34000  0.16000 1.1 0.9 1  1;
  14 100.0   1.00  0.14000  0.01000 1.1 0.9 1  1;
  15 100.0   1.00  0.90000  0.30000 1.1 0.9 1  1;
  16 100.0   1.00  0.25000  0.10000 1.1 0.9 1  1;
  17 100.0   1.00  0.11000  0.03000 1.1 0.9 1  1;
  18 100.0   1.00  0.60000  0.34000 1.1 0.9 1  1;
  19 100.0   1.00  0.45000  0.25000 1.1 0.9 1  1;
  20 100.0   1.00  0.18000  0.03000 1.1 0.9 1  1;
  21 100.0   1.00  0.14000  0.08000 1.1 0.9 1  1;
  22 100.0   1.00  0.10000  0.05000 1.1 0.9 1  1;
  23 100.0   1.00  0.07000  0.03000 1.1 0.9 1  1;
  27 100.0   1.00  0.62000  0.13000 1.1 0.9 1  1;
  28 100.0   1.00  0.17000  0.07000 1.1 0.9 1  1;
  29 100.0   1.00  0.24000  0.04000 1.1 0.9 1  1;
  31 100.0   1.00  0.43000  0.27000 1.1 0.9 1  1;
  32 100.0   1.00  0.59000  0.23000 1.1 0.9 1  1;
  33 100.0   1.00  0.23000  0.09000 1.1 0.9 1  1;
  34 100.0   1.00  0.59000  0.26000 1.1 0.9 1  1;
  35 100.0   1.00  0.33000  0.09000 1.1 0.9 1  1;
  36 100.0   1.00  0.31000  0.17000 1.1 0.9 1  1;
  39 100.0   1.00  0.27000  0.11000 1.1 0.9 1  1;
  40 100.0   1.00  0.20000  0.23000 1.1 0.9 1  1;
  41 100.0   1.00  0.37000  0.10000 1.1 0.9 1  1;
  42 100.0   1.00  0.37000  0.23000 1.1 0.9 1  1;
  43 100.0   1.00  0.18000  0.07000 1.1 0.9 1  1;
  44 100.0   1.00  0.16000  0.08000 1.1 0.9 1  1;
  45 100.0   1.00  0.53000  0.22000 1.1 0.9 1  1;
  46 100.0   1.00  0.28000  0.10000 1.1 0.9 1  1;
  47 100.0   1.00  0.34000  0.00000 1.1 0.9 1  1;
  48 100.0   1.00  0.20000  0.11000 1.1 0.9 1  1;
  49 100.0   1.00  0.87000  0.30000 1.1 0.9 1  1;
  50 100.0   1.00  0.17000  0.04000 1.1 0.9 1  1;
  51 100.0   1.00  0.17000  0.08000 1.1 0.9 1  1;
  52 100.0   1.00  0.18000  0.05000 1.1 0.9 1  1;
  53 100.0   1.00  0.23000  0.11000 1.1 0.9 1  1;
  54 100.0   1.00  1.13000  0.32000 1.1 0.9 1  1;
  55 100.0   1.00  0.63000  0.22000 1.1 0.9 1  1;
  56 100.0   1.00  0.84000  0.18000 1.1 0.9 1  1;
  57 100.0   1.00  0.12000  0.03000 1.1 0.9 1  1;
  58 100.0   1.00  0.12000  0.03000 1.1 0.9 1  1;
  59 100.0   1.00  2.77000  1.13000 1.1 0.9 1  1;
  60 100.0   1.00  0.78000  0.03000 1.1 0.9 1  1;
  62 100.0   1.00  0.77000  0.14000 1.1 0.9 1  1;
  66 100.0   1.00  0.39000  0.18000 1.1 0.9 1  1;
  67 100.0   1.00  0.28000  0.07000 1.1 0.9 1  1;
  70 100.0   1.00  0.66000  0.20000 1.1 0.9 1  1;
  74 100.0   1.00  0.68000  0.27000 1.1 0.9 1  1;
  75 100.0   1.00  0.47000  0.11000 1.1 0.9 1  1;
  76 100.0   1.00  0.68000  0.36000 1.1 0.9 1  1;
  77 100.0   1.00  0.61000  0.28000 1.1 0.9 1  1;
  78 100.0   1.00  0.71000  0.26000 1.1 0.9 1  1;
  79 100.0   1.00  0.39000  0.32000 1.1 0.9 1  1;
  80 100.0   1.00  1.30000  0.26000 1.1 0.9 1  1;
  82 100.0   1.00  0.54000  0.27000 1.1 0.9 1  1;
  83 100.0   1.00  0.20000  0.10000 1.1 0.9 1  1;
  84 100.0   1.00  0.11000  0.07000 1.1 0.9 1  1;
  85 100.0   1.00  0.24000  0.15000 1.1 0.9 1  1;
  86 100.0   1.00  0.21000  0.10000 1.1 0.9 1  1;
  88 100.0   1.00  0.48000  0.10000 1.1 0.9 1  1;
  90 100.0   1.00  0.78000  0.42000 1.1 0.9 1  1;
  92 100.0   1.00  0.65000  0.10000 1.1 0.9 1  1;
  93 100.0   1.00  0.12000  0.07000 1.1 0.9 1  1;
  94 100.0   1.00  0.30000  0.16000 1.1 0.9 1  1;
  95 100.0   1.00  0.42000  0.31000 1.1 0.9 1  1;
  96 100.0   1.00  0.38000  0.15000 1.1 0.9 1  1;
  97 100.0   1.00  0.15000  0.09000 1.1 0.9 1  1;
  98 100.0   1.00  0.34000  0.08000 1.1 0.9 1  1;
 100 100.0   1.00  0.37000  0.18000 1.1 0.9 1  1;
 101 100.0   1.00  0.22000  0.15000 1.1 0.9 1  1;
 102 100.0   1.00  0.05000  0.03000 1.1 0.9 1  1;
 103 100.0   1.00  0.23000  0.16000 1.1 0.9 1  1;
 104 100.0   1.00  0.38000  0.25000 1.1 0.9 1  1;
 105 100.0   1.00  0.31000  0.26000 1.1 0.9 1  1;
 106 100.0   1.00  0.43000  0.16000 1.1 0.9 1  1;
 107 100.0   1.00  0.28000  0.12000 1.1 0.9 1  1;
 108 100.0   1.00  0.02000  0.01000 1.1 0.9 1  1;
 109 100.0   1.00  0.08000  0.03000 1.1 0.9 1  1;
 110 100.0   1.00  0.39000  0.30000 1.1 0.9 1  1;
 112 100.0   1.00  0.25000  0.13000 1.1 0.9 1  1;
 114 100.0   1.00  0.08000  0.03000 1.1 0.9 1  1;
 115 100.0   1.00  0.22000  0.07000 1.1 0.9 1  1;
 117 100.0   1.00  0.20000  0.08000 1.1 0.9 1  1;
 118 100.0   1.00  0.33000  0.15000 1.1 0.9 1  1;
  ];

Shunt.con = [ ...
   5 100.0   1.00 60  0.00000 -0.40000  1;
  34 100.0   1.00 60  0.00000  0.14000  1;
  37 100.0   1.00 60  0.00000 -0.25000  1;
  44 100.0   1.00 60  0.00000  0.10000  1;
  45 100.0   1.00 60  0.00000  0.10000  1;
  46 100.0   1.00 60  0.00000  0.10000  1;
  48 100.0   1.00 60  0.00000  0.15000  1;
  74 100.0   1.00 60  0.00000  0.12000  1;
  79 100.0   1.00 60  0.00000  0.20000  1;
  82 100.0   1.00 60  0.00000  0.20000  1;
  83 100.0   1.00 60  0.00000  0.10000  1;
 105 100.0   1.00 60  0.00000  0.20000  1;
 107 100.0   1.00 60  0.00000  0.06000  1;
 110 100.0   1.00 60  0.00000  0.06000  1;
  ];

Line.con = [ ...
   1    2  100.00   1.00 60 0   0.0000  0.03030  0.09990  0.02540  0.00000  0.00000 0    0.000    0.000  1;
   1    3  100.00   1.00 60 0   0.0000  0.01290  0.04240  0.01082  0.00000  0.00000 0    0.000    0.000  1;
   4    5  100.00   1.00 60 0   0.0000  0.00176  0.00798  0.00210  0.00000  0.00000 0    0.000    0.000  1;
   3    5  100.00   1.00 60 0   0.0000  0.02410  0.10800  0.02840  0.00000  0.00000 0    0.000    0.000  1;
   5    6  100.00   1.00 60 0   0.0000  0.01190  0.05400  0.01426  0.00000  0.00000 0    0.000    0.000  1;
   6    7  100.00   1.00 60 0   0.0000  0.00459  0.02080  0.00550  0.00000  0.00000 0    0.000    0.000  1;
   8    9  100.00   1.00 60 0   0.0000  0.00244  0.03050  1.16200  0.00000  0.00000 0    0.000    0.000  1;
   8    5  100.00   1.00 60 0   0.0000  0.00000  0.02670  0.00000  0.98500  0.00000 0    0.000    0.000  1;
   9   10  100.00   1.00 60 0   0.0000  0.00258  0.03220  1.23000  0.00000  0.00000 0    0.000    0.000  1;
   4   11  100.00   1.00 60 0   0.0000  0.02090  0.06880  0.01748  0.00000  0.00000 0    0.000    0.000  1;
   5   11  100.00   1.00 60 0   0.0000  0.02030  0.06820  0.01738  0.00000  0.00000 0    0.000    0.000  1;
  11   12  100.00   1.00 60 0   0.0000  0.00595  0.01960  0.00502  0.00000  0.00000 0    0.000    0.000  1;
   2   12  100.00   1.00 60 0   0.0000  0.01870  0.06160  0.01572  0.00000  0.00000 0    0.000    0.000  1;
   3   12  100.00   1.00 60 0   0.0000  0.04840  0.16000  0.04060  0.00000  0.00000 0    0.000    0.000  1;
   7   12  100.00   1.00 60 0   0.0000  0.00862  0.03400  0.00874  0.00000  0.00000 0    0.000    0.000  1;
  11   13  100.00   1.00 60 0   0.0000  0.02225  0.07310  0.01876  0.00000  0.00000 0    0.000    0.000  1;
  12   14  100.00   1.00 60 0   0.0000  0.02150  0.07070  0.01816  0.00000  0.00000 0    0.000    0.000  1;
  13   15  100.00   1.00 60 0   0.0000  0.07440  0.24440  0.06268  0.00000  0.00000 0    0.000    0.000  1;
  14   15  100.00   1.00 60 0   0.0000  0.05950  0.19500  0.05020  0.00000  0.00000 0    0.000    0.000  1;
  12   16  100.00   1.00 60 0   0.0000  0.02120  0.08340  0.02140  0.00000  0.00000 0    0.000    0.000  1;
  15   17  100.00   1.00 60 0   0.0000  0.01320  0.04370  0.04440  0.00000  0.00000 0    0.000    0.000  1;
  16   17  100.00   1.00 60 0   0.0000  0.04540  0.18010  0.04660  0.00000  0.00000 0    0.000    0.000  1;
  17   18  100.00   1.00 60 0   0.0000  0.01230  0.05050  0.01298  0.00000  0.00000 0    0.000    0.000  1;
  18   19  100.00   1.00 60 0   0.0000  0.01119  0.04930  0.01142  0.00000  0.00000 0    0.000    0.000  1;
  19   20  100.00   1.00 60 0   0.0000  0.02520  0.11700  0.02980  0.00000  0.00000 0    0.000    0.000  1;
  15   19  100.00   1.00 60 0   0.0000  0.01200  0.03940  0.01010  0.00000  0.00000 0    0.000    0.000  1;
  20   21  100.00   1.00 60 0   0.0000  0.01830  0.08490  0.02160  0.00000  0.00000 0    0.000    0.000  1;
  21   22  100.00   1.00 60 0   0.0000  0.02090  0.09700  0.02460  0.00000  0.00000 0    0.000    0.000  1;
  22   23  100.00   1.00 60 0   0.0000  0.03420  0.15900  0.04040  0.00000  0.00000 0    0.000    0.000  1;
  23   24  100.00   1.00 60 0   0.0000  0.01350  0.04920  0.04980  0.00000  0.00000 0    0.000    0.000  1;
  23   25  100.00   1.00 60 0   0.0000  0.01560  0.08000  0.08640  0.00000  0.00000 0    0.000    0.000  1;
  26   25  100.00   1.00 60 0   0.0000  0.00000  0.03820  0.00000  0.96000  0.00000 0    0.000    0.000  1;
  25   27  100.00   1.00 60 0   0.0000  0.03180  0.16300  0.17640  0.00000  0.00000 0    0.000    0.000  1;
  27   28  100.00   1.00 60 0   0.0000  0.01913  0.08550  0.02160  0.00000  0.00000 0    0.000    0.000  1;
  28   29  100.00   1.00 60 0   0.0000  0.02370  0.09430  0.02380  0.00000  0.00000 0    0.000    0.000  1;
  30   17  100.00   1.00 60 0   0.0000  0.00000  0.03880  0.00000  0.96000  0.00000 0    0.000    0.000  1;
   8   30  100.00   1.00 60 0   0.0000  0.00431  0.05040  0.51400  0.00000  0.00000 0    0.000    0.000  1;
  26   30  100.00   1.00 60 0   0.0000  0.00799  0.08600  0.90800  0.00000  0.00000 0    0.000    0.000  1;
  17   31  100.00   1.00 60 0   0.0000  0.04740  0.15630  0.03990  0.00000  0.00000 0    0.000    0.000  1;
  29   31  100.00   1.00 60 0   0.0000  0.01080  0.03310  0.00830  0.00000  0.00000 0    0.000    0.000  1;
  23   32  100.00   1.00 60 0   0.0000  0.03170  0.11530  0.11730  0.00000  0.00000 0    0.000    0.000  1;
  31   32  100.00   1.00 60 0   0.0000  0.02980  0.09850  0.02510  0.00000  0.00000 0    0.000    0.000  1;
  27   32  100.00   1.00 60 0   0.0000  0.02290  0.07550  0.01926  0.00000  0.00000 0    0.000    0.000  1;
  15   33  100.00   1.00 60 0   0.0000  0.03800  0.12440  0.03194  0.00000  0.00000 0    0.000    0.000  1;
  19   34  100.00   1.00 60 0   0.0000  0.07520  0.24700  0.06320  0.00000  0.00000 0    0.000    0.000  1;
  35   36  100.00   1.00 60 0   0.0000  0.00224  0.01020  0.00268  0.00000  0.00000 0    0.000    0.000  1;
  35   37  100.00   1.00 60 0   0.0000  0.01100  0.04970  0.01318  0.00000  0.00000 0    0.000    0.000  1;
  33   37  100.00   1.00 60 0   0.0000  0.04150  0.14200  0.03660  0.00000  0.00000 0    0.000    0.000  1;
  34   36  100.00   1.00 60 0   0.0000  0.00871  0.02680  0.00568  0.00000  0.00000 0    0.000    0.000  1;
  34   37  100.00   1.00 60 0   0.0000  0.00256  0.00940  0.00984  0.00000  0.00000 0    0.000    0.000  1;
  38   37  100.00   1.00 60 0   0.0000  0.00000  0.03750  0.00000  0.93500  0.00000 0    0.000    0.000  1;
  37   39  100.00   1.00 60 0   0.0000  0.03210  0.10600  0.02700  0.00000  0.00000 0    0.000    0.000  1;
  37   40  100.00   1.00 60 0   0.0000  0.05930  0.16800  0.04200  0.00000  0.00000 0    0.000    0.000  1;
  30   38  100.00   1.00 60 0   0.0000  0.00464  0.05400  0.42200  0.00000  0.00000 0    0.000    0.000  1;
  39   40  100.00   1.00 60 0   0.0000  0.01840  0.06050  0.01552  0.00000  0.00000 0    0.000    0.000  1;
  40   41  100.00   1.00 60 0   0.0000  0.01450  0.04870  0.01222  0.00000  0.00000 0    0.000    0.000  1;
  40   42  100.00   1.00 60 0   0.0000  0.05550  0.18300  0.04660  0.00000  0.00000 0    0.000    0.000  1;
  41   42  100.00   1.00 60 0   0.0000  0.04100  0.13500  0.03440  0.00000  0.00000 0    0.000    0.000  1;
  43   44  100.00   1.00 60 0   0.0000  0.06080  0.24540  0.06068  0.00000  0.00000 0    0.000    0.000  1;
  34   43  100.00   1.00 60 0   0.0000  0.04130  0.16810  0.04226  0.00000  0.00000 0    0.000    0.000  1;
  44   45  100.00   1.00 60 0   0.0000  0.02240  0.09010  0.02240  0.00000  0.00000 0    0.000    0.000  1;
  45   46  100.00   1.00 60 0   0.0000  0.04000  0.13560  0.03320  0.00000  0.00000 0    0.000    0.000  1;
  46   47  100.00   1.00 60 0   0.0000  0.03800  0.12700  0.03160  0.00000  0.00000 0    0.000    0.000  1;
  46   48  100.00   1.00 60 0   0.0000  0.06010  0.18900  0.04720  0.00000  0.00000 0    0.000    0.000  1;
  47   49  100.00   1.00 60 0   0.0000  0.01910  0.06250  0.01604  0.00000  0.00000 0    0.000    0.000  1;
  42   49  100.00   1.00 60 0   0.0000  0.07150  0.32300  0.08600  0.00000  0.00000 0    0.000    0.000  1;
  42   49  100.00   1.00 60 0   0.0000  0.07150  0.32300  0.08600  0.00000  0.00000 0    0.000    0.000  1;
  45   49  100.00   1.00 60 0   0.0000  0.06840  0.18600  0.04440  0.00000  0.00000 0    0.000    0.000  1;
  48   49  100.00   1.00 60 0   0.0000  0.01790  0.05050  0.01258  0.00000  0.00000 0    0.000    0.000  1;
  49   50  100.00   1.00 60 0   0.0000  0.02670  0.07520  0.01874  0.00000  0.00000 0    0.000    0.000  1;
  49   51  100.00   1.00 60 0   0.0000  0.04860  0.13700  0.03420  0.00000  0.00000 0    0.000    0.000  1;
  51   52  100.00   1.00 60 0   0.0000  0.02030  0.05880  0.01396  0.00000  0.00000 0    0.000    0.000  1;
  52   53  100.00   1.00 60 0   0.0000  0.04050  0.16350  0.04058  0.00000  0.00000 0    0.000    0.000  1;
  53   54  100.00   1.00 60 0   0.0000  0.02630  0.12200  0.03100  0.00000  0.00000 0    0.000    0.000  1;
  49   54  100.00   1.00 60 0   0.0000  0.07300  0.28900  0.07380  0.00000  0.00000 0    0.000    0.000  1;
  49   54  100.00   1.00 60 0   0.0000  0.08690  0.29100  0.07300  0.00000  0.00000 0    0.000    0.000  1;
  54   55  100.00   1.00 60 0   0.0000  0.01690  0.07070  0.02020  0.00000  0.00000 0    0.000    0.000  1;
  54   56  100.00   1.00 60 0   0.0000  0.00275  0.00955  0.00732  0.00000  0.00000 0    0.000    0.000  1;
  55   56  100.00   1.00 60 0   0.0000  0.00488  0.01510  0.00374  0.00000  0.00000 0    0.000    0.000  1;
  56   57  100.00   1.00 60 0   0.0000  0.03430  0.09660  0.02420  0.00000  0.00000 0    0.000    0.000  1;
  50   57  100.00   1.00 60 0   0.0000  0.04740  0.13400  0.03320  0.00000  0.00000 0    0.000    0.000  1;
  56   58  100.00   1.00 60 0   0.0000  0.03430  0.09660  0.02420  0.00000  0.00000 0    0.000    0.000  1;
  51   58  100.00   1.00 60 0   0.0000  0.02550  0.07190  0.01788  0.00000  0.00000 0    0.000    0.000  1;
  54   59  100.00   1.00 60 0   0.0000  0.05030  0.22930  0.05980  0.00000  0.00000 0    0.000    0.000  1;
  56   59  100.00   1.00 60 0   0.0000  0.08250  0.25100  0.05690  0.00000  0.00000 0    0.000    0.000  1;
  56   59  100.00   1.00 60 0   0.0000  0.08030  0.23900  0.05360  0.00000  0.00000 0    0.000    0.000  1;
  55   59  100.00   1.00 60 0   0.0000  0.04739  0.21580  0.05646  0.00000  0.00000 0    0.000    0.000  1;
  59   60  100.00   1.00 60 0   0.0000  0.03170  0.14500  0.03760  0.00000  0.00000 0    0.000    0.000  1;
  59   61  100.00   1.00 60 0   0.0000  0.03280  0.15000  0.03880  0.00000  0.00000 0    0.000    0.000  1;
  60   61  100.00   1.00 60 0   0.0000  0.00264  0.01350  0.01456  0.00000  0.00000 0    0.000    0.000  1;
  60   62  100.00   1.00 60 0   0.0000  0.01230  0.05610  0.01468  0.00000  0.00000 0    0.000    0.000  1;
  61   62  100.00   1.00 60 0   0.0000  0.00824  0.03760  0.00980  0.00000  0.00000 0    0.000    0.000  1;
  63   59  100.00   1.00 60 0   0.0000  0.00000  0.03860  0.00000  0.96000  0.00000 0    0.000    0.000  1;
  63   64  100.00   1.00 60 0   0.0000  0.00172  0.02000  0.21600  0.00000  0.00000 0    0.000    0.000  1;
  64   61  100.00   1.00 60 0   0.0000  0.00000  0.02680  0.00000  0.98500  0.00000 0    0.000    0.000  1;
  38   65  100.00   1.00 60 0   0.0000  0.00901  0.09860  1.04600  0.00000  0.00000 0    0.000    0.000  1;
  64   65  100.00   1.00 60 0   0.0000  0.00269  0.03020  0.38000  0.00000  0.00000 0    0.000    0.000  1;
  49   66  100.00   1.00 60 0   0.0000  0.01800  0.09190  0.02480  0.00000  0.00000 0    0.000    0.000  1;
  49   66  100.00   1.00 60 0   0.0000  0.01800  0.09190  0.02480  0.00000  0.00000 0    0.000    0.000  1;
  62   66  100.00   1.00 60 0   0.0000  0.04820  0.21800  0.05780  0.00000  0.00000 0    0.000    0.000  1;
  62   67  100.00   1.00 60 0   0.0000  0.02580  0.11700  0.03100  0.00000  0.00000 0    0.000    0.000  1;
  65   66  100.00   1.00 60 0   0.0000  0.00000  0.03700  0.00000  0.93500  0.00000 0    0.000    0.000  1;
  66   67  100.00   1.00 60 0   0.0000  0.02240  0.10150  0.02682  0.00000  0.00000 0    0.000    0.000  1;
  65   68  100.00   1.00 60 0   0.0000  0.00138  0.01600  0.63800  0.00000  0.00000 0    0.000    0.000  1;
  47   69  100.00   1.00 60 0   0.0000  0.08440  0.27780  0.07092  0.00000  0.00000 0    0.000    0.000  1;
  49   69  100.00   1.00 60 0   0.0000  0.09850  0.32400  0.08280  0.00000  0.00000 0    0.000    0.000  1;
  68   69  100.00   1.00 60 0   0.0000  0.00000  0.03700  0.00000  0.93500  0.00000 0    0.000    0.000  1;
  69   70  100.00   1.00 60 0   0.0000  0.03000  0.12700  0.12200  0.00000  0.00000 0    0.000    0.000  1;
  24   70  100.00   1.00 60 0   0.0000  0.00221  0.41150  0.10198  0.00000  0.00000 0    0.000    0.000  1;
  70   71  100.00   1.00 60 0   0.0000  0.00882  0.03550  0.00878  0.00000  0.00000 0    0.000    0.000  1;
  24   72  100.00   1.00 60 0   0.0000  0.04880  0.19600  0.04880  0.00000  0.00000 0    0.000    0.000  1;
  71   72  100.00   1.00 60 0   0.0000  0.04460  0.18000  0.04444  0.00000  0.00000 0    0.000    0.000  1;
  71   73  100.00   1.00 60 0   0.0000  0.00866  0.04540  0.01178  0.00000  0.00000 0    0.000    0.000  1;
  70   74  100.00   1.00 60 0   0.0000  0.04010  0.13230  0.03368  0.00000  0.00000 0    0.000    0.000  1;
  70   75  100.00   1.00 60 0   0.0000  0.04280  0.14100  0.03600  0.00000  0.00000 0    0.000    0.000  1;
  69   75  100.00   1.00 60 0   0.0000  0.04050  0.12200  0.12400  0.00000  0.00000 0    0.000    0.000  1;
  74   75  100.00   1.00 60 0   0.0000  0.01230  0.04060  0.01034  0.00000  0.00000 0    0.000    0.000  1;
  76   77  100.00   1.00 60 0   0.0000  0.04440  0.14800  0.03680  0.00000  0.00000 0    0.000    0.000  1;
  69   77  100.00   1.00 60 0   0.0000  0.03090  0.10100  0.10380  0.00000  0.00000 0    0.000    0.000  1;
  75   77  100.00   1.00 60 0   0.0000  0.06010  0.19990  0.04978  0.00000  0.00000 0    0.000    0.000  1;
  77   78  100.00   1.00 60 0   0.0000  0.00376  0.01240  0.01264  0.00000  0.00000 0    0.000    0.000  1;
  78   79  100.00   1.00 60 0   0.0000  0.00546  0.02440  0.00648  0.00000  0.00000 0    0.000    0.000  1;
  77   80  100.00   1.00 60 0   0.0000  0.01700  0.04850  0.04720  0.00000  0.00000 0    0.000    0.000  1;
  77   80  100.00   1.00 60 0   0.0000  0.02940  0.10500  0.02280  0.00000  0.00000 0    0.000    0.000  1;
  79   80  100.00   1.00 60 0   0.0000  0.01560  0.07040  0.01870  0.00000  0.00000 0    0.000    0.000  1;
  68   81  100.00   1.00 60 0   0.0000  0.00175  0.02020  0.80800  0.00000  0.00000 0    0.000    0.000  1;
  81   80  100.00   1.00 60 0   0.0000  0.00000  0.03700  0.00000  0.93500  0.00000 0    0.000    0.000  1;
  77   82  100.00   1.00 60 0   0.0000  0.02980  0.08530  0.08174  0.00000  0.00000 0    0.000    0.000  1;
  82   83  100.00   1.00 60 0   0.0000  0.01120  0.03665  0.03796  0.00000  0.00000 0    0.000    0.000  1;
  83   84  100.00   1.00 60 0   0.0000  0.06250  0.13200  0.02580  0.00000  0.00000 0    0.000    0.000  1;
  83   85  100.00   1.00 60 0   0.0000  0.04300  0.14800  0.03480  0.00000  0.00000 0    0.000    0.000  1;
  84   85  100.00   1.00 60 0   0.0000  0.03020  0.06410  0.01234  0.00000  0.00000 0    0.000    0.000  1;
  85   86  100.00   1.00 60 0   0.0000  0.03500  0.12300  0.02760  0.00000  0.00000 0    0.000    0.000  1;
  86   87  100.00   1.00 60 0   0.0000  0.02828  0.20740  0.04450  0.00000  0.00000 0    0.000    0.000  1;
  85   88  100.00   1.00 60 0   0.0000  0.02000  0.10200  0.02760  0.00000  0.00000 0    0.000    0.000  1;
  85   89  100.00   1.00 60 0   0.0000  0.02390  0.17300  0.04700  0.00000  0.00000 0    0.000    0.000  1;
  88   89  100.00   1.00 60 0   0.0000  0.01390  0.07120  0.01934  0.00000  0.00000 0    0.000    0.000  1;
  89   90  100.00   1.00 60 0   0.0000  0.05180  0.18800  0.05280  0.00000  0.00000 0    0.000    0.000  1;
  89   90  100.00   1.00 60 0   0.0000  0.02380  0.09970  0.10600  0.00000  0.00000 0    0.000    0.000  1;
  90   91  100.00   1.00 60 0   0.0000  0.02540  0.08360  0.02140  0.00000  0.00000 0    0.000    0.000  1;
  89   92  100.00   1.00 60 0   0.0000  0.00990  0.05050  0.05480  0.00000  0.00000 0    0.000    0.000  1;
  89   92  100.00   1.00 60 0   0.0000  0.03930  0.15810  0.04140  0.00000  0.00000 0    0.000    0.000  1;
  91   92  100.00   1.00 60 0   0.0000  0.03870  0.12720  0.03268  0.00000  0.00000 0    0.000    0.000  1;
  92   93  100.00   1.00 60 0   0.0000  0.02580  0.08480  0.02180  0.00000  0.00000 0    0.000    0.000  1;
  92   94  100.00   1.00 60 0   0.0000  0.04810  0.15800  0.04060  0.00000  0.00000 0    0.000    0.000  1;
  93   94  100.00   1.00 60 0   0.0000  0.02230  0.07320  0.01876  0.00000  0.00000 0    0.000    0.000  1;
  94   95  100.00   1.00 60 0   0.0000  0.01320  0.04340  0.01110  0.00000  0.00000 0    0.000    0.000  1;
  80   96  100.00   1.00 60 0   0.0000  0.03560  0.18200  0.04940  0.00000  0.00000 0    0.000    0.000  1;
  82   96  100.00   1.00 60 0   0.0000  0.01620  0.05300  0.05440  0.00000  0.00000 0    0.000    0.000  1;
  94   96  100.00   1.00 60 0   0.0000  0.02690  0.08690  0.02300  0.00000  0.00000 0    0.000    0.000  1;
  80   97  100.00   1.00 60 0   0.0000  0.01830  0.09340  0.02540  0.00000  0.00000 0    0.000    0.000  1;
  80   98  100.00   1.00 60 0   0.0000  0.02380  0.10800  0.02860  0.00000  0.00000 0    0.000    0.000  1;
  80   99  100.00   1.00 60 0   0.0000  0.04540  0.20600  0.05460  0.00000  0.00000 0    0.000    0.000  1;
  92  100  100.00   1.00 60 0   0.0000  0.06480  0.29500  0.04720  0.00000  0.00000 0    0.000    0.000  1;
  94  100  100.00   1.00 60 0   0.0000  0.01780  0.05800  0.06040  0.00000  0.00000 0    0.000    0.000  1;
  95   96  100.00   1.00 60 0   0.0000  0.01710  0.05470  0.01474  0.00000  0.00000 0    0.000    0.000  1;
  96   97  100.00   1.00 60 0   0.0000  0.01730  0.08850  0.02400  0.00000  0.00000 0    0.000    0.000  1;
  98  100  100.00   1.00 60 0   0.0000  0.03970  0.17900  0.04760  0.00000  0.00000 0    0.000    0.000  1;
  99  100  100.00   1.00 60 0   0.0000  0.01800  0.08130  0.02160  0.00000  0.00000 0    0.000    0.000  1;
 100  101  100.00   1.00 60 0   0.0000  0.02770  0.12620  0.03280  0.00000  0.00000 0    0.000    0.000  1;
  92  102  100.00   1.00 60 0   0.0000  0.01230  0.05590  0.01464  0.00000  0.00000 0    0.000    0.000  1;
 101  102  100.00   1.00 60 0   0.0000  0.02460  0.11200  0.02940  0.00000  0.00000 0    0.000    0.000  1;
 100  103  100.00   1.00 60 0   0.0000  0.01600  0.05250  0.05360  0.00000  0.00000 0    0.000    0.000  1;
 100  104  100.00   1.00 60 0   0.0000  0.04510  0.20400  0.05410  0.00000  0.00000 0    0.000    0.000  1;
 103  104  100.00   1.00 60 0   0.0000  0.04660  0.15840  0.04070  0.00000  0.00000 0    0.000    0.000  1;
 103  105  100.00   1.00 60 0   0.0000  0.05350  0.16250  0.04080  0.00000  0.00000 0    0.000    0.000  1;
 100  106  100.00   1.00 60 0   0.0000  0.06050  0.22900  0.06200  0.00000  0.00000 0    0.000    0.000  1;
 104  105  100.00   1.00 60 0   0.0000  0.00994  0.03780  0.00986  0.00000  0.00000 0    0.000    0.000  1;
 105  106  100.00   1.00 60 0   0.0000  0.01400  0.05470  0.01434  0.00000  0.00000 0    0.000    0.000  1;
 105  107  100.00   1.00 60 0   0.0000  0.05300  0.18300  0.04720  0.00000  0.00000 0    0.000    0.000  1;
 105  108  100.00   1.00 60 0   0.0000  0.02610  0.07030  0.01844  0.00000  0.00000 0    0.000    0.000  1;
 106  107  100.00   1.00 60 0   0.0000  0.05300  0.18300  0.04720  0.00000  0.00000 0    0.000    0.000  1;
 108  109  100.00   1.00 60 0   0.0000  0.01050  0.02880  0.00760  0.00000  0.00000 0    0.000    0.000  1;
 103  110  100.00   1.00 60 0   0.0000  0.03906  0.18130  0.04610  0.00000  0.00000 0    0.000    0.000  1;
 109  110  100.00   1.00 60 0   0.0000  0.02780  0.07620  0.02020  0.00000  0.00000 0    0.000    0.000  1;
 110  111  100.00   1.00 60 0   0.0000  0.02200  0.07550  0.02000  0.00000  0.00000 0    0.000    0.000  1;
 110  112  100.00   1.00 60 0   0.0000  0.02470  0.06400  0.06200  0.00000  0.00000 0    0.000    0.000  1;
  17  113  100.00   1.00 60 0   0.0000  0.00913  0.03010  0.00768  0.00000  0.00000 0    0.000    0.000  1;
  32  113  100.00   1.00 60 0   0.0000  0.06150  0.20300  0.05180  0.00000  0.00000 0    0.000    0.000  1;
  32  114  100.00   1.00 60 0   0.0000  0.01350  0.06120  0.01628  0.00000  0.00000 0    0.000    0.000  1;
  27  115  100.00   1.00 60 0   0.0000  0.01640  0.07410  0.01972  0.00000  0.00000 0    0.000    0.000  1;
 114  115  100.00   1.00 60 0   0.0000  0.00230  0.01040  0.00276  0.00000  0.00000 0    0.000    0.000  1;
  68  116  100.00   1.00 60 0   0.0000  0.00034  0.00405  0.16400  0.00000  0.00000 0    0.000    0.000  1;
  12  117  100.00   1.00 60 0   0.0000  0.03290  0.14000  0.03580  0.00000  0.00000 0    0.000    0.000  1;
  75  118  100.00   1.00 60 0   0.0000  0.01450  0.04810  0.01198  0.00000  0.00000 0    0.000    0.000  1;
  76  118  100.00   1.00 60 0   0.0000  0.01640  0.05440  0.01356  0.00000  0.00000 0    0.000    0.000  1;
  ];

Areas.con = [ ...
   1 0 100.0 0 0 0 0 0;
  ];

Regions.con = [ ...
   1   80 100.0  0.00000  9.99990 0 0 0;
  ];

Bus.names = { ...
  'Riversde  V2'; 'Pokagon   V2'; 'HickryCk  V2'; 'NwCarlsl  V2'; 'Olive     V2';
  'Kankakee  V2'; 'JacksnRd  V2'; 'Olive     V1'; 'Bequine   V1'; 'Breed     V1';
  'SouthBnd  V2'; 'TwinBrch  V2'; 'Concord   V2'; 'GoshenJt  V2'; 'FtWayne   V2';
  'N. E.     V2'; 'Sorenson  V2'; 'McKinley  V2'; 'Lincoln   V2'; 'Adams     V2';
  'Jay       V2'; 'Randolph  V2'; 'CollCrnr  V2'; 'Trenton   V2'; 'TannrsCk  V2';
  'TannrsCk  V1'; 'Madison   V2'; 'Mullin    V2'; 'Grant     V2'; 'Sorenson  V1';
  'DeerCrk   V2'; 'Delaware  V2'; 'Haviland  V2'; 'Rockhill  V2'; 'WestLima  V2';
  'Sterling  V2'; 'EastLima  V2'; 'EastLima  V1'; 'NwLibrty  V2'; 'West End  V2';
  'S.Tiffin  V2'; 'Howard    V2'; 'S.Kenton  V2'; 'WMVernon  V2'; 'N.Newark  V2';
  'W.Lancst  V2'; 'Crooksvl  V2'; 'Zanesvll  V2'; 'Philo     V2'; 'WCambrdg  V2';
  'Newcmrst  V2'; 'SCoshoct  V2'; 'Wooster   V2'; 'Torrey    V2'; 'Wagenhls  V2';
  'Sunnysde  V2'; 'WNwPhil1  V2'; 'WNwPhil2  V2'; 'Tidd      V2'; 'SWKammer  V2';
  'W.Kammer  V2'; 'Natrium   V2'; 'Tidd      V1'; 'Kammer    V1'; 'Muskngum  V1';
  'Muskngum  V2'; 'Summerfl  V2'; 'Sporn     V1'; 'Sporn     V2'; 'Portsmth  V2';
  'NPortsmt  V2'; 'Hillsbro  V2'; 'Sargents  V2'; 'Bellefnt  V2'; 'SthPoint  V2';
  'Darrah    V2'; 'Turner    V2'; 'Chemical  V2'; 'CapitlHl  V2'; 'CabinCrk  V2';
  'Kanawha   V1'; 'Logan     V2'; 'Sprigg    V2'; 'BetsyLne  V2'; 'BeaverCk  V2';
  'Hazard    V2'; 'Pinevlle  V3'; 'Fremont   V2'; 'ClinchRv  V2'; 'Holston   V2';
  'HolstonT  V2'; 'Saltvlle  V2'; 'Tazewell  V2'; 'Switchbk  V2'; 'Caldwell  V2';
  'Baileysv  V2'; 'Sundial   V2'; 'Bradley   V2'; 'Hinton    V2'; 'Glen Lyn  V2';
  'Wythe     V2'; 'Smythe    V2'; 'Claytor   V2'; 'Hancock   V2'; 'Roanoke   V2';
  'Cloverdl  V2'; 'Reusens   V2'; 'Blaine    V2'; 'Franklin  V2'; 'Fieldale  V2';
  'DanRiver  V2'; 'Danville  V2'; 'Deer Crk  V2'; 'WMedford  V2'; 'Medford   V2';
  'KygerCrk  V2'; 'Corey     V2'; 'WHuntngd  V2'};

Areas.names = { ...
  'IEEE118BUS'};

Regions.names = { ...
  'IEEE118IE'};

